<?xml version="1.0" encoding="UTF-8"?>

<!-- generated on Mon Apr 30 14:23:56 2018 by SUMO polyconvert Version 0.26.0
<?xml version="1.0" encoding="UTF-8"?>

<configuration xmlns:xsi="http://www.w3.org/2001/XMLSchema-instance" xsi:noNamespaceSchemaLocation="http://sumo.dlr.de/xsd/polyconvertConfiguration.xsd">

    <input>
        <net-file value="guindy.net.xml"/>
        <osm-files value="guindy.osm"/>
        <type-file value="osmPolyconvert.typ.xml"/>
    </input>

    <output>
        <output-file value="guindy.poly.xml"/>
    </output>

    <processing>
        <poi-layer-offset value="5"/>
    </processing>

</configuration>
-->

<additional xmlns:xsi="http://www.w3.org/2001/XMLSchema-instance" xsi:noNamespaceSchemaLocation="http://sumo.dlr.de/xsd/additional_file.xsd">
    <location netOffset="-412019.05,-1436645.20" convBoundary="-1037.02,-0.00,3929.74,9455.96" origBoundary="80.179137,12.994322,80.224890,13.079828" projParameter="+proj=utm +zone=44 +ellps=WGS84 +datum=WGS84 +units=m +no_defs"/>

    <poly id="214599732" type="industrial" color="209,209,204" fill="1" layer="-3.00" shape="1709.80,2117.87 1908.27,2060.67 2119.98,2036.47 2161.09,2039.12 2280.87,2066.65 2302.00,1760.47 2288.49,1740.33 2290.66,1662.56 2290.80,1634.20 2294.57,1579.61 2324.89,1587.11 2329.03,1571.42 2206.38,1535.86 1905.56,1494.98 1861.24,1498.37 1846.57,1603.99 1674.72,1583.40 1653.43,1665.13 1656.41,1856.98 1672.44,1964.29 1709.80,2117.87"/>
    <poly id="218167010" type="amenity" color="237,199,199" fill="1" layer="-1.00" shape="1486.77,1026.11 1539.87,1025.94 1529.43,1148.41 1475.96,1142.69 1486.77,1026.11"/>
    <poly id="27769227" type="leisure" color="207,245,201" fill="1" layer="-2.00" shape="925.21,1242.73 1362.19,1258.54 1267.67,919.58 1242.66,872.43 1208.21,858.26 1174.68,852.94 1139.07,851.38 913.12,872.36 871.04,886.80 825.68,969.26 901.62,1137.36 925.21,1242.73"/>
    <poly id="28066870" type="building" color="255,230,230" fill="1" layer="-1.00" shape="1794.02,1379.20 1805.26,1297.38 1816.36,1299.30 1822.05,1310.25 1821.07,1326.30 1844.99,1327.71 1845.22,1303.86 1833.49,1303.42 1836.35,1287.92 1868.21,1289.25 1857.35,1388.25 1836.95,1386.15 1825.69,1388.03 1814.42,1383.01 1794.02,1379.20"/>
    <poly id="28225974" type="military" color="153,153,92" fill="1" layer="-3.00" shape="-440.51,375.92 -791.64,549.12 -1037.02,716.60 -910.74,1061.58 -842.85,1109.40 -814.41,1251.97 -788.13,1640.83 -669.39,1836.81 -359.63,1773.85 -380.76,1573.22 -462.72,1556.83 -495.50,1494.97 -295.67,1399.99 -296.87,1315.82 -146.09,1238.00 31.32,1016.00 148.16,953.36 137.73,726.28 220.68,753.76 228.70,710.79 295.77,740.04 338.02,766.10 440.73,870.87 542.40,945.44 556.05,928.37 664.83,1010.01 692.85,1004.65 780.18,1099.69 797.68,1152.88 832.39,1242.75 1370.80,1264.31 1374.15,1251.83 1272.31,912.28 1228.59,862.70 1158.38,846.77 889.98,872.36 854.81,857.97 762.02,786.23 349.24,446.97 88.51,235.41 29.76,420.10 -88.50,483.42 -368.28,377.73 -440.51,375.92"/>
    <poly id="30681102" type="building" color="255,230,230" fill="1" layer="-1.00" shape="1519.74,1133.61 1525.98,1065.19 1515.80,1064.27 1515.22,1070.49 1505.96,1069.64 1505.23,1077.77 1498.72,1077.19 1497.39,1091.81 1493.01,1091.43 1492.08,1101.63 1496.81,1102.04 1495.37,1117.82 1498.15,1118.08 1497.38,1126.56 1506.65,1127.41 1506.19,1132.39 1519.74,1133.61"/>
    <poly id="32742657" type="water" color="181,209,209" fill="0" layer="-4.00" shape="1877.00,1509.89 1848.86,1727.49 1861.38,1850.12 1921.64,1886.01 2003.81,2033.23 2018.30,2052.72 2037.81,2050.44 2102.82,2199.97 2124.05,2232.74 2139.93,2253.97 2142.84,2288.18 2146.63,2310.37 2146.72,2339.96 2146.81,2368.63 2141.06,2419.41 2147.17,2441.37 2163.45,2461.69 2181.21,2477.25 2217.93,2491.41 2253.34,2503.34 2285.00,2509.71 2317.60,2516.08 2327.21,2548.14 2344.71,2554.84 2359.68,2579.76 2345.90,2635.30 2348.73,2651.01 2356.20,2657.46 2367.36,2654.65 2382.22,2643.50 2417.60,2645.25 2446.43,2637.76 2465.03,2634.93 2485.53,2638.56 2511.63,2653.28 2518.24,2683.78 2536.93,2708.70 2546.29,2724.38 2550.98,2735.47 2557.51,2743.78"/>
    <poly id="34159543" type="amenity" color="237,199,199" fill="1" layer="-1.00" shape="1432.69,1369.96 1424.87,1301.54 1473.24,1297.58 1495.66,1325.05 1493.66,1374.12 1432.69,1369.96"/>
    <poly id="34159614" type="residential" color="235,235,227" fill="1" layer="-3.00" shape="1089.75,1585.07 1103.66,1789.27 1105.71,1841.44 1474.57,1813.22 1467.50,1711.03 1306.55,1721.22 1296.97,1586.34 1089.75,1585.07"/>
    <poly id="34159832" type="amenity" color="237,199,199" fill="1" layer="-1.00" shape="1804.18,1282.33 1782.85,1413.32 1868.87,1445.52 1876.96,1282.10 1804.18,1282.33"/>
    <poly id="34159832#1" type="commercial" color="209,209,204" fill="1" layer="-3.00" shape="1804.18,1282.33 1782.85,1413.32 1868.87,1445.52 1876.96,1282.10 1804.18,1282.33"/>
    <poly id="354478308" type="building" color="255,230,230" fill="1" layer="-1.00" shape="1503.74,1809.06 1503.37,1804.94 1504.53,1804.84 1504.36,1802.88 1505.55,1802.78 1505.08,1797.60 1503.90,1797.71 1503.64,1794.89 1503.04,1794.94 1502.76,1791.87 1503.36,1791.82 1503.09,1788.91 1504.54,1788.78 1503.81,1780.63 1503.17,1780.69 1502.96,1778.50 1501.70,1778.62 1501.12,1772.25 1502.84,1772.10 1502.17,1764.75 1501.23,1764.83 1501.02,1762.42 1500.42,1762.47 1500.07,1758.63 1494.86,1759.10 1495.23,1763.12 1493.11,1763.30 1493.98,1772.91 1495.91,1772.74 1496.55,1779.85 1494.62,1780.02 1495.48,1789.62 1497.59,1789.42 1498.19,1796.08 1496.09,1796.26 1496.98,1806.13 1499.16,1805.93 1499.47,1809.44 1503.74,1809.06"/>
    <poly id="354478384" type="building" color="255,230,230" fill="1" layer="-1.00" shape="1394.02,1377.01 1394.45,1394.02 1407.18,1393.69 1406.74,1376.68 1394.02,1377.01"/>
    <poly id="354478558" type="building" color="255,230,230" fill="1" layer="-1.00" shape="1429.01,1651.14 1428.12,1639.80 1411.62,1641.07 1412.50,1652.41 1429.01,1651.14"/>
    <poly id="354478654" type="building" color="255,230,230" fill="1" layer="-1.00" shape="1426.71,1639.00 1425.94,1629.07 1414.99,1629.91 1415.76,1639.84 1426.71,1639.00"/>
    <poly id="354478746" type="building" color="255,230,230" fill="1" layer="-1.00" shape="1519.76,1807.71 1519.48,1803.60 1520.65,1803.52 1520.52,1801.56 1521.71,1801.48 1521.35,1796.29 1520.17,1796.38 1519.97,1793.56 1519.37,1793.59 1519.15,1790.52 1519.76,1790.48 1519.56,1787.56 1521.01,1787.47 1520.45,1779.31 1519.80,1779.35 1519.65,1777.16 1518.38,1777.24 1517.95,1770.87 1518.64,1770.82 1518.51,1768.92 1519.54,1768.85 1519.16,1763.38 1517.86,1763.47 1517.71,1761.35 1515.78,1761.47 1515.51,1757.34 1511.29,1757.62 1511.57,1761.65 1510.31,1761.75 1510.44,1763.86 1508.86,1763.96 1509.27,1769.87 1510.98,1769.75 1511.11,1771.60 1512.74,1771.49 1513.21,1778.36 1512.27,1778.43 1512.38,1780.09 1511.39,1780.16 1511.93,1788.11 1514.05,1787.97 1514.50,1794.62 1513.79,1794.67 1513.92,1796.54 1512.51,1796.63 1512.94,1802.91 1513.87,1802.84 1513.99,1804.59 1515.25,1804.50 1515.49,1808.00 1519.76,1807.71"/>
    <poly id="354478754" type="building" color="255,230,230" fill="1" layer="-1.00" shape="1550.59,1805.55 1550.31,1801.44 1551.48,1801.35 1551.34,1799.40 1552.54,1799.32 1552.18,1794.13 1551.00,1794.21 1550.81,1791.38 1550.19,1791.43 1549.99,1788.35 1550.59,1788.31 1550.39,1785.40 1551.83,1785.31 1551.27,1777.13 1550.63,1777.18 1550.49,1774.99 1549.21,1775.07 1548.77,1768.69 1549.47,1768.65 1549.34,1766.74 1550.37,1766.67 1550.00,1761.21 1548.69,1761.30 1548.54,1759.18 1546.62,1759.31 1546.34,1755.16 1542.12,1755.45 1542.40,1759.49 1541.13,1759.57 1541.28,1761.69 1539.70,1761.80 1540.10,1767.70 1541.82,1767.59 1541.94,1769.43 1543.57,1769.33 1544.04,1776.19 1543.09,1776.25 1543.21,1777.92 1542.22,1777.99 1542.77,1785.94 1544.87,1785.79 1545.32,1792.46 1544.62,1792.51 1544.74,1794.36 1543.35,1794.47 1543.78,1800.74 1544.70,1800.68 1544.82,1802.41 1546.07,1802.33 1546.31,1805.84 1550.59,1805.55"/>
    <poly id="354478802" type="building" color="255,230,230" fill="1" layer="-1.00" shape="1474.20,1736.20 1477.43,1735.92 1477.67,1738.55 1488.49,1737.59 1488.42,1736.82 1490.35,1736.65 1490.24,1735.40 1493.99,1735.07 1494.18,1737.10 1503.22,1736.31 1503.11,1735.09 1506.21,1734.82 1506.14,1733.97 1510.75,1733.56 1510.93,1735.63 1518.91,1734.92 1518.83,1734.00 1522.59,1733.67 1522.47,1732.37 1525.86,1732.07 1525.99,1733.37 1528.34,1733.17 1528.42,1734.09 1536.18,1733.41 1536.09,1732.50 1538.89,1732.26 1538.75,1730.78 1540.94,1730.58 1541.08,1732.06 1543.78,1731.83 1543.86,1732.73 1552.64,1731.96 1552.54,1730.86 1556.06,1730.55 1555.90,1728.72 1558.40,1728.50 1558.00,1724.06 1553.52,1724.46 1553.41,1723.31 1551.37,1723.49 1551.28,1722.38 1544.80,1722.95 1544.87,1723.68 1542.83,1723.86 1542.98,1725.48 1536.92,1726.02 1536.77,1724.39 1534.38,1724.61 1534.31,1723.87 1528.26,1724.40 1528.33,1725.20 1526.27,1725.39 1526.40,1726.95 1522.21,1727.31 1522.07,1725.75 1519.05,1726.02 1518.98,1725.21 1511.50,1725.88 1511.59,1726.85 1509.59,1727.02 1509.74,1728.69 1504.43,1729.16 1504.28,1727.49 1502.22,1727.67 1502.13,1726.69 1495.16,1727.31 1495.27,1728.61 1493.34,1728.79 1493.42,1729.73 1488.48,1730.16 1488.40,1729.22 1486.42,1729.39 1486.31,1728.09 1478.82,1728.74 1478.88,1729.44 1476.82,1729.62 1476.96,1731.27 1473.79,1731.56 1474.20,1736.20"/>
    <poly id="354478839" type="building" color="255,230,230" fill="1" layer="-1.00" shape="1475.00,1749.89 1478.23,1749.61 1478.38,1751.25 1480.40,1751.08 1480.49,1752.06 1488.40,1751.36 1488.33,1750.59 1489.85,1750.45 1489.80,1749.83 1491.10,1749.72 1491.04,1749.09 1494.79,1748.75 1494.89,1749.87 1496.99,1749.69 1497.06,1750.61 1504.01,1750.00 1503.91,1748.78 1507.01,1748.51 1506.93,1747.66 1511.55,1747.25 1511.63,1748.13 1513.59,1747.95 1513.71,1749.14 1519.71,1748.61 1519.63,1747.69 1523.40,1747.37 1523.27,1746.06 1528.05,1745.64 1528.17,1746.95 1529.92,1746.79 1530.01,1747.72 1536.97,1747.10 1536.89,1746.19 1539.69,1745.95 1539.56,1744.47 1544.10,1744.07 1544.20,1745.15 1546.03,1744.99 1546.15,1746.29 1553.43,1745.65 1553.34,1744.55 1556.86,1744.24 1556.70,1742.41 1559.20,1742.19 1558.80,1737.75 1554.32,1738.15 1554.22,1737.00 1552.17,1737.18 1552.07,1736.07 1545.61,1736.64 1545.67,1737.38 1543.63,1737.55 1543.78,1739.17 1537.72,1739.71 1537.57,1738.09 1535.17,1738.30 1535.10,1737.56 1529.06,1738.09 1529.13,1738.89 1527.06,1739.08 1527.20,1740.64 1523.01,1741.00 1522.87,1739.44 1519.85,1739.71 1519.77,1738.90 1512.30,1739.56 1512.38,1740.54 1510.38,1740.71 1510.54,1742.38 1505.23,1742.85 1505.07,1741.18 1503.01,1741.36 1502.93,1740.38 1495.96,1741.00 1496.07,1742.30 1494.13,1742.48 1494.22,1743.41 1489.28,1743.85 1489.19,1742.91 1487.23,1743.08 1487.11,1741.78 1479.62,1742.43 1479.68,1743.13 1477.61,1743.31 1477.76,1744.96 1474.59,1745.25 1475.00,1749.89"/>
    <poly id="354518485" type="building" color="255,230,230" fill="1" layer="-1.00" shape="1355.93,1370.14 1354.36,1349.45 1345.87,1350.10 1347.45,1370.78 1355.93,1370.14"/>
    <poly id="354518852" type="building" color="255,230,230" fill="1" layer="-1.00" shape="1323.66,1638.12 1340.31,1637.62 1340.05,1629.30 1323.41,1629.80 1323.66,1638.12"/>
    <poly id="354519251" type="building" color="255,230,230" fill="1" layer="-1.00" shape="1413.67,1625.16 1424.77,1624.31 1424.00,1614.34 1412.89,1615.19 1413.67,1625.16"/>
    <poly id="354519319" type="building" color="255,230,230" fill="1" layer="-1.00" shape="1418.05,1425.96 1436.93,1425.34 1436.49,1412.24 1417.61,1412.87 1418.05,1425.96"/>
    <poly id="354519399" type="building" color="255,230,230" fill="1" layer="-1.00" shape="1438.64,1421.77 1456.63,1421.63 1469.22,1413.58 1468.73,1400.56 1437.86,1401.75 1438.64,1421.77"/>
    <poly id="354519410" type="building" color="255,230,230" fill="1" layer="-1.00" shape="1534.44,1806.41 1534.16,1802.28 1535.32,1802.21 1535.20,1800.25 1536.39,1800.17 1536.03,1794.99 1534.85,1795.06 1534.65,1792.24 1534.05,1792.28 1533.83,1789.21 1534.44,1789.16 1534.24,1786.26 1535.67,1786.16 1535.12,1777.99 1534.48,1778.04 1534.33,1775.85 1533.06,1775.93 1532.62,1769.55 1533.32,1769.50 1533.19,1767.60 1534.22,1767.53 1533.84,1762.07 1532.53,1762.16 1532.39,1760.03 1530.46,1760.17 1530.18,1756.02 1525.97,1756.31 1526.25,1760.35 1524.98,1760.43 1525.12,1762.55 1523.54,1762.66 1523.95,1768.56 1525.66,1768.44 1525.79,1770.29 1527.42,1770.17 1527.88,1777.05 1526.95,1777.11 1527.06,1778.78 1526.06,1778.85 1526.61,1786.80 1528.72,1786.65 1529.18,1793.32 1528.46,1793.36 1528.60,1795.22 1527.19,1795.31 1527.62,1801.59 1528.55,1801.54 1528.67,1803.27 1529.92,1803.19 1530.16,1806.70 1534.44,1806.41"/>
    <poly id="354519414" type="building" color="255,230,230" fill="1" layer="-1.00" shape="1489.18,1810.18 1488.90,1806.05 1490.07,1805.98 1489.93,1804.02 1491.13,1803.94 1490.77,1798.76 1489.58,1798.84 1489.39,1796.01 1488.78,1796.05 1488.58,1792.98 1489.17,1792.93 1488.98,1790.03 1490.42,1789.93 1489.86,1781.76 1489.22,1781.81 1489.07,1779.62 1487.80,1779.70 1487.36,1773.32 1488.06,1773.27 1487.92,1771.37 1488.95,1771.30 1488.59,1765.84 1487.28,1765.93 1487.13,1763.81 1485.21,1763.94 1484.93,1759.79 1480.71,1760.08 1480.98,1764.12 1479.72,1764.20 1479.86,1766.32 1478.29,1766.42 1478.69,1772.33 1480.40,1772.21 1480.52,1774.06 1482.15,1773.96 1482.63,1780.82 1481.68,1780.88 1481.80,1782.55 1480.81,1782.62 1481.35,1790.57 1483.46,1790.42 1483.91,1797.09 1483.21,1797.13 1483.33,1798.99 1481.94,1799.09 1482.36,1805.36 1483.29,1805.31 1483.40,1807.04 1484.66,1806.96 1484.90,1810.47 1489.18,1810.18"/>
    <poly id="354519524" type="building" color="255,230,230" fill="1" layer="-1.00" shape="1471.51,1717.55 1474.74,1717.26 1474.89,1718.91 1476.91,1718.73 1477.00,1719.72 1484.92,1719.02 1484.85,1718.25 1486.37,1718.11 1486.31,1717.48 1487.60,1717.37 1487.54,1716.74 1491.31,1716.42 1491.41,1717.53 1493.50,1717.35 1493.58,1718.27 1500.53,1717.65 1500.42,1716.44 1503.53,1716.17 1503.45,1715.32 1508.06,1714.90 1508.14,1715.79 1510.11,1715.62 1510.21,1716.80 1516.23,1716.27 1516.14,1715.35 1519.90,1715.02 1519.79,1713.72 1524.57,1713.30 1524.68,1714.61 1526.44,1714.45 1526.52,1715.37 1533.49,1714.76 1533.41,1713.85 1536.20,1713.61 1536.07,1712.13 1540.61,1711.73 1540.70,1712.81 1542.55,1712.65 1542.66,1713.95 1549.95,1713.31 1549.84,1712.21 1553.37,1711.90 1553.21,1710.07 1555.70,1709.86 1555.31,1705.41 1550.82,1705.80 1550.72,1704.66 1548.68,1704.84 1548.58,1703.73 1542.12,1704.29 1542.18,1705.03 1540.15,1705.21 1540.28,1706.83 1534.22,1707.36 1534.09,1705.74 1531.68,1705.96 1531.61,1705.22 1525.56,1705.75 1525.64,1706.55 1523.57,1706.74 1523.71,1708.30 1519.52,1708.66 1519.38,1707.10 1516.36,1707.37 1516.28,1706.56 1508.80,1707.21 1508.89,1708.20 1506.90,1708.37 1507.04,1710.04 1501.73,1710.50 1501.59,1708.84 1499.53,1709.01 1499.44,1708.04 1492.46,1708.66 1492.59,1709.96 1490.65,1710.14 1490.74,1711.08 1485.79,1711.51 1485.70,1710.57 1483.74,1710.74 1483.62,1709.43 1476.13,1710.09 1476.19,1710.79 1474.12,1710.97 1474.27,1712.62 1471.10,1712.91 1471.51,1717.55"/>
    <poly id="354539805" type="amenity" color="237,199,199" fill="1" layer="-1.00" shape="1980.59,1463.01 1988.19,1463.19 1988.25,1460.77 1989.96,1460.81 1990.15,1452.79 1988.34,1452.75 1988.40,1449.71 1980.92,1449.53 1980.59,1463.01"/>
    <poly id="354539805#1" type="building" color="255,230,230" fill="1" layer="-1.00" shape="1980.59,1463.01 1988.19,1463.19 1988.25,1460.77 1989.96,1460.81 1990.15,1452.79 1988.34,1452.75 1988.40,1449.71 1980.92,1449.53 1980.59,1463.01"/>
    <poly id="354539816" type="building" color="255,230,230" fill="1" layer="-1.00" shape="2067.09,1421.60 2082.57,1424.66 2083.99,1417.59 2068.50,1414.53 2067.09,1421.60"/>
    <poly id="354539832" type="building" color="255,230,230" fill="1" layer="-1.00" shape="1892.72,1381.53 1912.35,1382.88 1913.18,1370.94 1893.55,1369.59 1892.72,1381.53"/>
    <poly id="354539839" type="building" color="255,230,230" fill="1" layer="-1.00" shape="1922.63,1446.37 1946.49,1448.06 1948.95,1413.86 1925.08,1412.17 1922.63,1446.37"/>
    <poly id="354539857" type="building" color="255,230,230" fill="1" layer="-1.00" shape="1883.09,1291.60 1881.70,1304.97 1895.16,1306.35 1896.55,1292.98 1883.09,1291.60"/>
    <poly id="354539878" type="building" color="255,230,230" fill="1" layer="-1.00" shape="1896.77,1304.20 1917.08,1305.87 1917.91,1295.92 1897.59,1294.25 1896.77,1304.20"/>
    <poly id="354539892" type="building" color="255,230,230" fill="1" layer="-1.00" shape="1976.71,1166.21 1996.58,1165.36 1996.33,1159.51 1976.45,1160.36 1976.71,1166.21"/>
    <poly id="354539899" type="building" color="255,230,230" fill="1" layer="-1.00" shape="1998.16,1217.70 1998.42,1206.14 1985.94,1205.86 1985.67,1217.41 1998.16,1217.70"/>
    <poly id="354539947" type="building" color="255,230,230" fill="1" layer="-1.00" shape="2001.87,1460.39 2013.10,1461.26 2014.45,1444.16 2003.22,1443.29 2001.87,1460.39"/>
    <poly id="354539995" type="building" color="255,230,230" fill="1" layer="-1.00" shape="1930.66,1321.72 1948.26,1322.67 1948.85,1312.04 1931.24,1311.09 1930.66,1321.72"/>
    <poly id="354540004" type="building" color="255,230,230" fill="1" layer="-1.00" shape="1870.57,1445.71 1874.39,1448.60 1884.54,1448.82 1886.29,1450.75 1893.39,1451.55 1894.03,1449.81 1896.42,1450.11 1896.89,1452.04 1904.60,1452.48 1905.04,1436.50 1871.42,1434.18 1870.57,1445.71"/>
    <poly id="354540058" type="building" color="255,230,230" fill="1" layer="-1.00" shape="1976.64,1167.77 1976.96,1174.75 1996.49,1173.84 1996.15,1166.85 1976.64,1167.77"/>
    <poly id="354570347" type="building" color="255,230,230" fill="1" layer="-1.00" shape="1778.08,1210.71 1792.24,1210.94 1792.29,1208.39 1795.58,1208.44 1795.66,1203.40 1799.04,1203.46 1799.11,1198.98 1785.80,1198.76 1785.71,1204.40 1778.19,1204.28 1778.08,1210.71"/>
    <poly id="354570353" type="building" color="255,230,230" fill="1" layer="-1.00" shape="1669.36,1182.22 1682.65,1182.03 1682.02,1136.49 1679.05,1136.18 1676.14,1135.87 1673.72,1136.88 1672.10,1139.61 1671.64,1146.93 1670.15,1146.95 1670.24,1153.87 1668.96,1153.88 1669.36,1182.22"/>
    <poly id="354570363" type="building" color="255,230,230" fill="1" layer="-1.00" shape="1602.79,1164.17 1626.82,1163.11 1626.19,1149.15 1602.16,1150.22 1602.79,1164.17"/>
    <poly id="354570413" type="building" color="255,230,230" fill="1" layer="-1.00" shape="1712.46,1309.91 1729.06,1311.87 1730.08,1303.33 1713.49,1301.37 1712.46,1309.91"/>
    <poly id="354570427" type="building" color="255,230,230" fill="1" layer="-1.00" shape="1778.14,1130.56 1777.30,1139.28 1808.68,1142.28 1809.53,1133.56 1778.14,1130.56"/>
    <poly id="354570438" type="building" color="255,230,230" fill="1" layer="-1.00" shape="1765.85,1211.15 1765.70,1222.52 1777.93,1222.68 1778.09,1211.31 1765.85,1211.15"/>
    <poly id="354570454" type="building" color="255,230,230" fill="1" layer="-1.00" shape="1645.83,1161.83 1656.70,1161.52 1656.17,1143.56 1645.30,1143.88 1645.83,1161.83"/>
    <poly id="354570498" type="building" color="255,230,230" fill="1" layer="-1.00" shape="1769.61,1306.91 1786.00,1307.66 1786.36,1299.70 1769.97,1298.95 1769.61,1306.91"/>
    <poly id="354570532" type="building" color="255,230,230" fill="1" layer="-1.00" shape="1785.22,1156.40 1794.93,1156.96 1795.56,1146.60 1785.84,1146.03 1785.22,1156.40"/>
    <poly id="354570537" type="building" color="255,230,230" fill="1" layer="-1.00" shape="1809.10,1130.81 1809.46,1120.94 1780.30,1119.89 1779.94,1129.75 1809.10,1130.81"/>
    <poly id="354570634" type="building" color="255,230,230" fill="1" layer="-1.00" shape="1699.74,1281.68 1697.54,1295.79 1710.29,1297.76 1712.49,1283.64 1699.74,1281.68"/>
    <poly id="354570664" type="building" color="255,230,230" fill="1" layer="-1.00" shape="1279.54,1304.01 1293.80,1304.57 1294.45,1288.05 1280.19,1287.49 1279.54,1304.01"/>
    <poly id="354570771" type="building" color="255,230,230" fill="1" layer="-1.00" shape="1746.83,1299.93 1737.26,1299.85 1737.29,1315.17 1746.68,1317.88 1746.83,1299.93"/>
    <poly id="354570774" type="building" color="255,230,230" fill="1" layer="-1.00" shape="1767.10,1176.88 1776.80,1177.46 1777.95,1158.39 1768.24,1157.81 1767.10,1176.88"/>
    <poly id="354570792" type="building" color="255,230,230" fill="1" layer="-1.00" shape="1723.96,1264.35 1734.57,1263.91 1734.30,1257.43 1723.69,1257.87 1723.96,1264.35"/>
    <poly id="354570923" type="building" color="255,230,230" fill="1" layer="-1.00" shape="1633.39,1163.30 1644.40,1162.83 1643.61,1144.30 1632.60,1144.75 1633.39,1163.30"/>
    <poly id="354570926" type="building" color="255,230,230" fill="1" layer="-1.00" shape="1979.61,1350.58 1997.78,1352.52 1999.52,1336.33 1981.36,1334.40 1979.61,1350.58"/>
    <poly id="354570934" type="building" color="255,230,230" fill="1" layer="-1.00" shape="1662.63,1285.04 1659.40,1302.18 1676.84,1305.43 1680.08,1288.29 1662.63,1285.04"/>
    <poly id="354570954" type="building" color="255,230,230" fill="1" layer="-1.00" shape="1665.24,1208.23 1677.01,1206.58 1677.15,1188.47 1664.96,1189.34 1665.24,1208.23"/>
    <poly id="354570957" type="building" color="255,230,230" fill="1" layer="-1.00" shape="1767.00,1320.15 1784.61,1321.20 1785.36,1308.76 1767.75,1307.71 1767.00,1320.15"/>
    <poly id="354570987" type="building" color="255,230,230" fill="1" layer="-1.00" shape="1754.00,1302.70 1753.03,1318.79 1762.63,1319.36 1763.61,1303.27 1754.00,1302.70"/>
    <poly id="354571002" type="building" color="255,230,230" fill="1" layer="-1.00" shape="1679.15,1217.99 1689.25,1217.55 1687.92,1201.04 1678.82,1200.68 1679.15,1217.99"/>
    <poly id="354571035" type="building" color="255,230,230" fill="1" layer="-1.00" shape="1231.65,1315.11 1231.64,1332.53 1255.86,1332.54 1255.86,1315.12 1231.65,1315.11"/>
    <poly id="354571044" type="building" color="255,230,230" fill="1" layer="-1.00" shape="1373.97,1473.56 1399.86,1471.86 1399.16,1461.30 1373.27,1463.00 1373.97,1473.56"/>
    <poly id="354571047" type="building" color="255,230,230" fill="1" layer="-1.00" shape="1692.80,1275.44 1703.01,1274.21 1699.15,1242.66 1688.94,1243.90 1692.80,1275.44"/>
    <poly id="354571050" type="building" color="255,230,230" fill="1" layer="-1.00" shape="1414.53,1506.79 1416.02,1531.03 1426.52,1530.38 1425.05,1506.16 1414.53,1506.79"/>
    <poly id="354571052" type="building" color="255,230,230" fill="1" layer="-1.00" shape="1750.83,1286.97 1757.60,1286.75 1757.02,1269.04 1750.24,1269.26 1750.83,1286.97"/>
    <poly id="354571054" type="building" color="255,230,230" fill="1" layer="-1.00" shape="1461.60,1186.49 1459.62,1201.97 1499.04,1206.94 1501.01,1191.46 1461.60,1186.49"/>
    <poly id="354571066" type="building" color="255,230,230" fill="1" layer="-1.00" shape="1766.12,1296.37 1776.34,1296.04 1775.39,1267.54 1765.18,1267.87 1766.12,1296.37"/>
    <poly id="354571095" type="building" color="255,230,230" fill="1" layer="-1.00" shape="1258.74,1284.38 1257.93,1305.68 1270.16,1306.14 1270.98,1284.84 1258.74,1284.38"/>
    <poly id="354571098" type="building" color="255,230,230" fill="1" layer="-1.00" shape="1732.21,1348.09 1740.11,1348.78 1741.96,1327.50 1734.08,1326.83 1732.21,1348.09"/>
    <poly id="354571108" type="building" color="255,230,230" fill="1" layer="-1.00" shape="1330.51,1527.42 1330.89,1537.92 1343.77,1537.45 1343.39,1526.96 1330.51,1527.42"/>
    <poly id="354571111" type="building" color="255,230,230" fill="1" layer="-1.00" shape="1778.62,1247.80 1778.79,1258.91 1794.37,1258.66 1794.19,1247.55 1778.62,1247.80"/>
    <poly id="354571123" type="building" color="255,230,230" fill="1" layer="-1.00" shape="1721.06,1275.82 1730.66,1275.79 1730.56,1267.75 1720.44,1267.88 1721.06,1275.82"/>
    <poly id="354571158" type="building" color="255,230,230" fill="1" layer="-1.00" shape="1811.48,1180.82 1811.04,1187.09 1820.91,1187.78 1821.36,1181.52 1811.48,1180.82"/>
    <poly id="354571160" type="building" color="255,230,230" fill="1" layer="-1.00" shape="2016.63,1668.94 2045.97,1673.48 2049.06,1653.69 2031.68,1651.00 2032.54,1645.54 2023.01,1644.06 2021.97,1650.68 2019.54,1650.30 2016.63,1668.94"/>
    <poly id="354571168" type="building" color="255,230,230" fill="1" layer="-1.00" shape="1757.55,1363.14 1755.12,1374.52 1760.05,1375.56 1757.40,1388.01 1766.95,1390.02 1772.03,1366.20 1757.55,1363.14"/>
    <poly id="354742504" type="building" color="255,230,230" fill="1" layer="-1.00" shape="1430.18,1470.31 1441.21,1469.78 1440.17,1448.59 1429.14,1449.13 1430.18,1470.31"/>
    <poly id="354742507" type="building" color="255,230,230" fill="1" layer="-1.00" shape="1978.80,1133.77 1992.55,1133.43 1992.40,1127.57 1978.65,1127.91 1978.80,1133.77"/>
    <poly id="354742511" type="building" color="255,230,230" fill="1" layer="-1.00" shape="1983.60,1230.58 1983.12,1243.19 1995.46,1243.66 1995.94,1231.04 1983.60,1230.58"/>
    <poly id="354742516" type="building" color="255,230,230" fill="1" layer="-1.00" shape="1456.51,1493.78 1466.31,1493.48 1465.94,1482.35 1456.15,1482.67 1456.51,1493.78"/>
    <poly id="354742518" type="building" color="255,230,230" fill="1" layer="-1.00" shape="1383.07,1510.69 1384.43,1522.50 1400.78,1520.64 1399.43,1508.84 1383.07,1510.69"/>
    <poly id="354742531" type="building" color="255,230,230" fill="1" layer="-1.00" shape="1387.66,1615.60 1403.38,1614.31 1402.50,1603.60 1386.77,1604.87 1387.66,1615.60"/>
    <poly id="354742540" type="building" color="255,230,230" fill="1" layer="-1.00" shape="1905.96,1186.02 1914.48,1186.28 1914.75,1177.14 1906.25,1176.89 1905.96,1186.02"/>
    <poly id="354742543" type="building" color="255,230,230" fill="1" layer="-1.00" shape="2024.93,1261.63 2027.79,1239.72 2017.62,1238.41 2014.76,1260.33 2024.93,1261.63"/>
    <poly id="354742545" type="building" color="255,230,230" fill="1" layer="-1.00" shape="1362.61,1537.59 1374.34,1537.05 1373.94,1528.48 1362.21,1529.03 1362.61,1537.59"/>
    <poly id="354742558" type="building" color="255,230,230" fill="1" layer="-1.00" shape="1398.13,1698.99 1398.93,1708.60 1408.68,1707.81 1407.89,1698.20 1398.13,1698.99"/>
    <poly id="354742561" type="building" color="255,230,230" fill="1" layer="-1.00" shape="1442.14,1472.87 1442.32,1487.92 1450.69,1487.82 1450.52,1472.78 1442.14,1472.87"/>
    <poly id="354742565" type="building" color="255,230,230" fill="1" layer="-1.00" shape="1358.29,1507.59 1375.91,1506.88 1375.41,1494.87 1357.79,1495.59 1358.29,1507.59"/>
    <poly id="354742576" type="building" color="255,230,230" fill="1" layer="-1.00" shape="1973.78,1230.28 1973.21,1242.72 1981.50,1243.10 1982.08,1230.66 1973.78,1230.28"/>
    <poly id="354742579" type="building" color="255,230,230" fill="1" layer="-1.00" shape="1372.96,1538.23 1373.57,1551.31 1382.00,1550.93 1381.40,1537.85 1372.96,1538.23"/>
    <poly id="354742584" type="building" color="255,230,230" fill="1" layer="-1.00" shape="1327.32,1695.64 1345.26,1695.11 1344.96,1684.88 1327.02,1685.42 1327.32,1695.64"/>
    <poly id="354742590" type="building" color="255,230,230" fill="1" layer="-1.00" shape="1326.07,1494.58 1343.96,1493.32 1343.22,1482.82 1325.33,1484.09 1326.07,1494.58"/>
    <poly id="354742593" type="building" color="255,230,230" fill="1" layer="-1.00" shape="1944.73,1198.18 1956.05,1197.94 1955.91,1191.11 1944.59,1191.34 1944.73,1198.18"/>
    <poly id="354742596" type="building" color="255,230,230" fill="1" layer="-1.00" shape="1370.13,1661.19 1382.41,1660.19 1381.89,1653.87 1369.61,1654.87 1370.13,1661.19"/>
    <poly id="354742605" type="building" color="255,230,230" fill="1" layer="-1.00" shape="1996.40,1235.36 1995.20,1248.55 2006.02,1249.53 2007.23,1236.33 1996.40,1235.36"/>
    <poly id="354742607" type="building" color="255,230,230" fill="1" layer="-1.00" shape="1427.57,1528.91 1447.19,1527.57 1445.80,1507.42 1426.17,1508.75 1427.57,1528.91"/>
    <poly id="354742608" type="building" color="255,230,230" fill="1" layer="-1.00" shape="1924.70,1127.75 1924.51,1138.30 1933.82,1138.48 1934.01,1127.92 1924.70,1127.75"/>
    <poly id="354742616" type="building" color="255,230,230" fill="1" layer="-1.00" shape="1323.21,1683.82 1343.06,1683.23 1342.81,1675.00 1322.95,1675.59 1323.21,1683.82"/>
    <poly id="354742621" type="building" color="255,230,230" fill="1" layer="-1.00" shape="1301.05,1376.36 1313.89,1375.43 1313.03,1363.95 1300.19,1364.90 1301.05,1376.36"/>
    <poly id="354742622" type="building" color="255,230,230" fill="1" layer="-1.00" shape="1314.49,1526.67 1342.14,1524.81 1341.60,1516.87 1348.37,1516.42 1347.92,1509.78 1313.51,1512.09 1314.49,1526.67"/>
    <poly id="354742630" type="building" color="255,230,230" fill="1" layer="-1.00" shape="1392.62,1479.02 1393.05,1491.60 1402.49,1491.30 1402.07,1478.70 1392.62,1479.02"/>
    <poly id="354742632" type="building" color="255,230,230" fill="1" layer="-1.00" shape="1964.86,1146.62 1994.69,1145.63 1994.34,1135.27 1964.51,1136.27 1964.86,1146.62"/>
    <poly id="354742638" type="building" color="255,230,230" fill="1" layer="-1.00" shape="1359.22,1284.84 1348.44,1284.79 1348.26,1324.07 1359.04,1324.11 1359.22,1284.84"/>
    <poly id="354742640" type="building" color="255,230,230" fill="1" layer="-1.00" shape="1314.76,1496.33 1315.29,1503.08 1320.64,1502.66 1320.11,1495.91 1314.76,1496.33"/>
    <poly id="354742645" type="building" color="255,230,230" fill="1" layer="-1.00" shape="1331.21,1307.60 1331.12,1325.29 1339.77,1325.34 1339.87,1307.64 1331.21,1307.60"/>
    <poly id="354742649" type="building" color="255,230,230" fill="1" layer="-1.00" shape="1413.52,1467.95 1427.38,1467.41 1426.49,1445.11 1412.64,1445.66 1413.52,1467.95"/>
    <poly id="354742651" type="building" color="255,230,230" fill="1" layer="-1.00" shape="1472.53,1468.87 1469.63,1444.14 1455.40,1445.79 1458.29,1470.52 1472.53,1468.87"/>
    <poly id="354742652" type="building" color="255,230,230" fill="1" layer="-1.00" shape="1370.57,1671.58 1387.05,1670.24 1386.40,1662.30 1369.92,1663.64 1370.57,1671.58"/>
    <poly id="354742658" type="building" color="255,230,230" fill="1" layer="-1.00" shape="1275.28,1380.87 1288.72,1380.23 1288.29,1371.54 1274.85,1372.18 1275.28,1380.87"/>