<?xml version="1.0" encoding="UTF-8"?>

<!-- generated on Mon Apr 30 14:22:51 2018 by SUMO netconvert Version 0.26.0
<?xml version="1.0" encoding="UTF-8"?>

<configuration xmlns:xsi="http://www.w3.org/2001/XMLSchema-instance" xsi:noNamespaceSchemaLocation="http://sumo.dlr.de/xsd/netconvertConfiguration.xsd">

    <input>
        <osm-files value="guindy.osm"/>
    </input>

    <output>
        <output-file value="guindy.net.xml"/>
    </output>

    <projection>
        <proj.utm value="true"/>
    </projection>

</configuration>
-->

<net version="0.25" xmlns:xsi="http://www.w3.org/2001/XMLSchema-instance" xsi:noNamespaceSchemaLocation="http://sumo.dlr.de/xsd/net_file.xsd">

    <location netOffset="-412019.05,-1436645.20" convBoundary="0.00,0.00,3929.74,9455.96" origBoundary="80.188715,12.994322,80.224890,13.079828" projParameter="+proj=utm +zone=44 +ellps=WGS84 +datum=WGS84 +units=m +no_defs"/>

    <type id="highway.bridleway" priority="1" numLanes="1" speed="2.78" allow="pedestrian" oneway="1" width="2.00"/>
    <type id="highway.bus_guideway" priority="1" numLanes="1" speed="8.33" allow="bus" oneway="1"/>
    <type id="highway.cycleway" priority="1" numLanes="1" speed="5.56" allow="bicycle" oneway="0" width="1.00"/>
    <type id="highway.footway" priority="1" numLanes="1" speed="8.33" allow="pedestrian" oneway="1" width="2.00"/>
    <type id="highway.ford" priority="1" numLanes="1" speed="2.78" allow="army" oneway="0"/>
    <type id="highway.living_street" priority="3" numLanes="1" speed="2.78" disallow="tram rail_urban rail rail_electric ship" oneway="0"/>
    <type id="highway.motorway" priority="13" numLanes="2" speed="44.44" allow="private emergency authority army vip passenger hov taxi bus coach delivery truck trailer motorcycle evehicle custom1 custom2" oneway="1"/>
    <type id="highway.motorway_link" priority="12" numLanes="1" speed="22.22" allow="private emergency authority army vip passenger hov taxi bus coach delivery truck trailer motorcycle evehicle custom1 custom2" oneway="1"/>
    <type id="highway.path" priority="1" numLanes="1" speed="2.78" allow="bicycle pedestrian" oneway="1" width="2.00"/>
    <type id="highway.pedestrian" priority="1" numLanes="1" speed="8.33" allow="pedestrian" oneway="1" width="2.00"/>
    <type id="highway.primary" priority="9" numLanes="2" speed="27.78" disallow="tram rail_urban rail rail_electric ship" oneway="0"/>
    <type id="highway.primary_link" priority="8" numLanes="1" speed="22.22" disallow="tram rail_urban rail rail_electric ship" oneway="0"/>
    <type id="highway.raceway" priority="14" numLanes="2" speed="83.33" allow="vip" oneway="0"/>
    <type id="highway.residential" priority="4" numLanes="1" speed="13.89" disallow="tram rail_urban rail rail_electric ship" oneway="0"/>
    <type id="highway.secondary" priority="7" numLanes="2" speed="27.78" disallow="tram rail_urban rail rail_electric ship" oneway="0"/>
    <type id="highway.secondary_link" priority="6" numLanes="1" speed="22.22" disallow="tram rail_urban rail rail_electric ship" oneway="0"/>
    <type id="highway.service" priority="2" numLanes="1" speed="5.56" allow="delivery bicycle pedestrian" oneway="0"/>
    <type id="highway.services" priority="1" numLanes="1" speed="8.33" disallow="tram rail_urban rail rail_electric ship" oneway="0"/>
    <type id="highway.stairs" priority="1" numLanes="1" speed="1.39" allow="pedestrian" oneway="1" width="2.00"/>
    <type id="highway.step" priority="1" numLanes="1" speed="1.39" allow="pedestrian" oneway="1" width="2.00"/>
    <type id="highway.steps" priority="1" numLanes="1" speed="1.39" allow="pedestrian" oneway="1" width="2.00"/>
    <type id="highway.tertiary" priority="6" numLanes="1" speed="22.22" disallow="tram rail_urban rail rail_electric ship" oneway="0"/>
    <type id="highway.tertiary_link" priority="5" numLanes="1" speed="22.22" disallow="tram rail_urban rail rail_electric ship" oneway="0"/>
    <type id="highway.track" priority="1" numLanes="1" speed="5.56" disallow="tram rail_urban rail rail_electric ship" oneway="0"/>
    <type id="highway.trunk" priority="11" numLanes="2" speed="27.78" disallow="tram rail_urban rail rail_electric bicycle pedestrian ship" oneway="0"/>
    <type id="highway.trunk_link" priority="10" numLanes="1" speed="22.22" disallow="tram rail_urban rail rail_electric bicycle pedestrian ship" oneway="0"/>
    <type id="highway.unclassified" priority="5" numLanes="1" speed="13.89" disallow="tram rail_urban rail rail_electric ship" oneway="0"/>
    <type id="highway.unsurfaced" priority="1" numLanes="1" speed="8.33" disallow="tram rail_urban rail rail_electric ship" oneway="0"/>
    <type id="railway.light_rail" priority="15" numLanes="1" speed="27.78" allow="rail_urban" oneway="1"/>
    <type id="railway.preserved" priority="15" numLanes="1" speed="27.78" allow="rail" oneway="1"/>
    <type id="railway.rail" priority="15" numLanes="1" speed="83.33" allow="rail rail_electric" oneway="1"/>
    <type id="railway.subway" priority="15" numLanes="1" speed="27.78" allow="rail_urban" oneway="1"/>
    <type id="railway.tram" priority="15" numLanes="1" speed="13.89" allow="tram" oneway="1"/>

    <edge id=":1121392629_0" function="internal">
        <lane id=":1121392629_0_0" index="0" disallow="tram rail_urban rail rail_electric ship" speed="18.05" length="4.72" shape="1617.92,1599.98 1616.76,1600.45 1615.93,1601.18 1615.43,1602.17 1615.28,1603.42"/>
    </edge>
    <edge id=":1121392629_1" function="internal">
        <lane id=":1121392629_1_0" index="0" disallow="tram rail_urban rail rail_electric ship" speed="13.89" length="4.82" shape="1617.92,1599.98 1616.52,1599.49 1615.91,1598.79 1616.11,1597.89 1617.10,1596.78"/>
    </edge>
    <edge id=":1121392629_2" function="internal">
        <lane id=":1121392629_2_0" index="0" disallow="tram rail_urban rail rail_electric ship" speed="18.05" length="5.07" shape="1612.45,1595.65 1613.34,1596.44 1614.42,1596.89 1615.67,1597.01 1617.10,1596.78"/>
    </edge>
    <edge id=":1121392629_3" function="internal">
        <lane id=":1121392629_3_0" index="0" disallow="tram rail_urban rail rail_electric ship" speed="22.22" length="8.27" shape="1612.45,1595.65 1615.28,1603.42"/>
    </edge>
    <edge id=":1121392674_0" function="internal">
        <lane id=":1121392674_0_0" index="0" disallow="tram rail_urban rail rail_electric bicycle pedestrian ship" speed="25.00" length="14.59" shape="1597.19,1322.76 1593.32,1320.70 1589.93,1320.32 1586.66,1320.70 1583.15,1320.90"/>
    </edge>
    <edge id=":1121392674_1" function="internal">
        <lane id=":1121392674_1_0" index="0" disallow="tram rail_urban rail rail_electric bicycle pedestrian ship" speed="27.78" length="15.47" shape="1597.19,1322.76 1593.52,1320.03 1590.96,1318.23 1588.36,1316.49 1584.59,1313.91"/>
        <lane id=":1121392674_1_1" index="1" disallow="tram rail_urban rail rail_electric bicycle pedestrian ship" speed="27.78" length="15.47" shape="1599.18,1320.13 1595.48,1317.37 1592.90,1315.56 1590.28,1313.80 1586.46,1311.20"/>
    </edge>
    <edge id=":1121392674_3" function="internal">
        <lane id=":1121392674_3_0" index="0" disallow="tram rail_urban rail rail_electric bicycle pedestrian ship" speed="25.00" length="8.11" shape="1583.33,1317.60 1586.08,1317.51 1587.21,1316.87 1586.71,1315.67 1584.59,1313.91"/>
    </edge>
    <edge id=":1121392674_4" function="internal">
        <lane id=":1121392674_4_0" index="0" disallow="tram rail_urban rail rail_electric bicycle pedestrian ship" speed="22.22" length="4.82" shape="1583.33,1317.60 1584.52,1318.49 1584.89,1319.33 1584.43,1320.14 1583.15,1320.90"/>
    </edge>
    <edge id=":1281030564_0" function="internal">
        <lane id=":1281030564_0_0" index="0" disallow="tram rail_urban rail rail_electric ship" speed="2.78" length="4.82" shape="1609.28,1007.57 1610.08,1006.32 1610.90,1005.89 1611.73,1006.29 1612.58,1007.51"/>
    </edge>
    <edge id=":2064737959_0" function="internal">
        <lane id=":2064737959_0_0" index="0" disallow="tram rail_urban rail rail_electric ship" speed="13.89" length="5.26" shape="1411.74,1378.00 1411.46,1376.52 1410.82,1375.48 1409.82,1374.89 1408.45,1374.75"/>
    </edge>
    <edge id=":2064737959_1" function="internal">
        <lane id=":2064737959_1_0" index="0" disallow="tram rail_urban rail rail_electric ship" speed="13.89" length="10.79" shape="1411.74,1378.00 1411.99,1375.02 1413.15,1372.91 1415.22,1371.70 1418.20,1371.36"/>
    </edge>
    <edge id=":2064737959_2" function="internal">
        <lane id=":2064737959_2_0" index="0" disallow="tram rail_urban rail rail_electric ship" speed="13.89" length="4.82" shape="1411.74,1378.00 1412.49,1376.72 1413.29,1376.26 1414.14,1376.62 1415.04,1377.81"/>
    </edge>
    <edge id=":2064737959_3" function="internal">
        <lane id=":2064737959_3_0" index="0" disallow="tram rail_urban rail rail_electric ship" speed="13.89" length="5.11" shape="1418.10,1374.66 1416.69,1374.82 1415.71,1375.40 1415.16,1376.39 1415.04,1377.81"/>
    </edge>
    <edge id=":2064737959_4" function="internal">
        <lane id=":2064737959_4_0" index="0" disallow="tram rail_urban rail rail_electric ship" speed="13.89" length="9.64" shape="1418.10,1374.66 1408.45,1374.75"/>
    </edge>
    <edge id=":2064737959_5" function="internal">
        <lane id=":2064737959_5_0" index="0" disallow="tram rail_urban rail rail_electric ship" speed="13.89" length="2.41" shape="1418.10,1374.66 1416.89,1373.80 1416.50,1372.96"/>
    </edge>
    <edge id=":2064737959_9" function="internal">
        <lane id=":2064737959_9_0" index="0" speed="13.89" length="2.41" shape="1416.50,1372.96 1416.94,1372.15 1418.20,1371.36"/>
    </edge>
    <edge id=":2064737959_6" function="internal">
        <lane id=":2064737959_6_0" index="0" disallow="tram rail_urban rail rail_electric ship" speed="13.89" length="9.92" shape="1408.28,1371.46 1418.20,1371.36"/>
    </edge>
    <edge id=":2064737959_7" function="internal">
        <lane id=":2064737959_7_0" index="0" disallow="tram rail_urban rail rail_electric ship" speed="13.89" length="5.46" shape="1408.28,1371.46 1411.09,1371.73 1413.15,1372.87 1413.30,1373.11"/>
    </edge>
    <edge id=":2064737959_8" function="internal">
        <lane id=":2064737959_8_0" index="0" disallow="tram rail_urban rail rail_electric ship" speed="13.89" length="2.54" shape="1408.28,1371.46 1409.56,1372.21 1410.01,1373.02 1409.96,1373.14"/>
    </edge>
    <edge id=":2064737959_10" function="internal">
        <lane id=":2064737959_10_0" index="0" speed="13.89" length="5.10" shape="1413.30,1373.11 1414.47,1374.90 1415.04,1377.81"/>
    </edge>
    <edge id=":2064737959_11" function="internal">
        <lane id=":2064737959_11_0" index="0" speed="13.89" length="2.28" shape="1409.96,1373.14 1409.65,1373.86 1408.45,1374.75"/>
    </edge>
    <edge id=":2064737971_0" function="internal">
        <lane id=":2064737971_0_0" index="0" disallow="tram rail_urban rail rail_electric ship" speed="27.78" length="9.50" shape="1421.87,1443.55 1412.38,1443.94"/>
        <lane id=":2064737971_0_1" index="1" disallow="tram rail_urban rail rail_electric ship" speed="27.78" length="9.50" shape="1421.74,1440.26 1412.25,1440.64"/>
    </edge>
    <edge id=":2064737971_2" function="internal">
        <lane id=":2064737971_2_0" index="0" disallow="tram rail_urban rail rail_electric ship" speed="20.84" length="7.88" shape="1421.74,1440.26 1418.93,1440.17 1416.91,1439.66 1415.68,1438.72 1415.24,1437.35"/>
    </edge>
    <edge id=":2064737971_3" function="internal">
        <lane id=":2064737971_3_0" index="0" disallow="tram rail_urban rail rail_electric ship" speed="20.84" length="7.86" shape="1418.54,1437.26 1418.17,1438.64 1417.01,1439.66 1415.03,1440.33 1412.25,1440.64"/>
    </edge>
    <edge id=":2064737971_4" function="internal">
        <lane id=":2064737971_4_0" index="0" disallow="tram rail_urban rail rail_electric ship" speed="13.89" length="4.82" shape="1418.54,1437.26 1417.75,1438.52 1416.93,1438.96 1416.10,1438.57 1415.24,1437.35"/>
    </edge>
    <edge id=":2066072121_0" function="internal">
        <lane id=":2066072121_0_0" index="0" disallow="tram rail_urban rail rail_electric ship" speed="13.89" length="4.82" shape="1460.84,1372.72 1462.05,1373.59 1462.44,1374.42 1462.00,1375.24 1460.74,1376.02"/>
    </edge>
    <edge id=":2066072122_0" function="internal">
        <lane id=":2066072122_0_0" index="0" disallow="tram rail_urban rail rail_electric ship" speed="13.89" length="9.89" shape="1303.90,1383.94 1294.05,1384.82"/>
    </edge>
    <edge id=":2066072122_1" function="internal">
        <lane id=":2066072122_1_0" index="0" disallow="tram rail_urban rail rail_electric ship" speed="13.89" length="5.59" shape="1303.90,1383.94 1300.91,1383.89 1298.74,1382.88 1298.62,1382.71"/>
    </edge>
    <edge id=":2066072122_2" function="internal">
        <lane id=":2066072122_2_0" index="0" disallow="tram rail_urban rail rail_electric ship" speed="13.89" length="2.53" shape="1303.90,1383.94 1302.57,1383.28 1302.05,1382.51 1302.10,1382.40"/>
    </edge>
    <edge id=":2066072122_9" function="internal">
        <lane id=":2066072122_9_0" index="0" speed="13.89" length="5.18" shape="1298.62,1382.71 1297.38,1380.91 1296.84,1377.97"/>
    </edge>
    <edge id=":2066072122_10" function="internal">
        <lane id=":2066072122_10_0" index="0" speed="13.89" length="2.29" shape="1302.10,1382.40 1302.36,1381.64 1303.48,1380.67"/>
    </edge>
    <edge id=":2066072122_3" function="internal">
        <lane id=":2066072122_3_0" index="0" disallow="tram rail_urban rail rail_electric ship" speed="13.89" length="5.11" shape="1300.14,1377.84 1300.39,1379.23 1301.04,1380.17 1302.07,1380.65 1303.48,1380.67"/>
    </edge>
    <edge id=":2066072122_4" function="internal">
        <lane id=":2066072122_4_0" index="0" disallow="tram rail_urban rail rail_electric ship" speed="13.89" length="10.54" shape="1300.14,1377.84 1299.85,1380.78 1298.75,1382.92 1296.81,1384.27 1294.05,1384.82"/>
    </edge>
    <edge id=":2066072122_5" function="internal">
        <lane id=":2066072122_5_0" index="0" disallow="tram rail_urban rail rail_electric ship" speed="13.89" length="4.82" shape="1300.14,1377.84 1299.36,1379.11 1298.55,1379.55 1297.71,1379.17 1296.84,1377.97"/>
    </edge>
    <edge id=":2066072122_6" function="internal">
        <lane id=":2066072122_6_0" index="0" disallow="tram rail_urban rail rail_electric ship" speed="13.89" length="5.25" shape="1293.89,1381.52 1295.23,1381.25 1296.17,1380.56 1296.70,1379.47 1296.84,1377.97"/>
    </edge>
    <edge id=":2066072122_7" function="internal">
        <lane id=":2066072122_7_0" index="0" disallow="tram rail_urban rail rail_electric ship" speed="13.89" length="9.63" shape="1293.89,1381.52 1303.48,1380.67"/>
    </edge>
    <edge id=":2066072122_8" function="internal">
        <lane id=":2066072122_8_0" index="0" disallow="tram rail_urban rail rail_electric ship" speed="13.89" length="2.41" shape="1293.89,1381.52 1295.17,1382.29 1295.62,1383.09"/>
    </edge>
    <edge id=":2066072122_11" function="internal">
        <lane id=":2066072122_11_0" index="0" speed="13.89" length="2.41" shape="1295.62,1383.09 1295.25,1383.94 1294.05,1384.82"/>
    </edge>
    <edge id=":2142471892_0" function="internal">
        <lane id=":2142471892_0_0" index="0" disallow="tram rail_urban rail rail_electric ship" speed="2.78" length="4.82" shape="2246.82,1269.88 2248.27,1270.23 2248.94,1270.87 2248.83,1271.78 2247.95,1272.98"/>
    </edge>
    <edge id=":2168356862_0" function="internal">
        <lane id=":2168356862_0_0" index="0" disallow="tram rail_urban rail rail_electric ship" speed="13.89" length="4.65" shape="1747.48,1434.27 1743.34,1432.16"/>
    </edge>
    <edge id=":2168356862_1" function="internal">
        <lane id=":2168356862_1_0" index="0" disallow="tram rail_urban rail rail_electric ship" speed="13.89" length="13.83" shape="1747.48,1434.27 1743.61,1432.71 1741.89,1430.57 1742.33,1427.87 1744.92,1424.59"/>
    </edge>
    <edge id=":2168356862_2" function="internal">
        <lane id=":2168356862_2_0" index="0" disallow="tram rail_urban rail rail_electric ship" speed="13.89" length="2.67" shape="1747.48,1434.27 1746.49,1433.17 1746.30,1432.26 1746.47,1432.07"/>
    </edge>
    <edge id=":2168356862_9" function="internal">
        <lane id=":2168356862_9_0" index="0" speed="13.89" length="2.15" shape="1746.47,1432.07 1746.90,1431.57 1748.31,1431.08"/>
    </edge>
    <edge id=":2168356862_3" function="internal">
        <lane id=":2168356862_3_0" index="0" disallow="tram rail_urban rail rail_electric ship" speed="13.89" length="5.88" shape="1747.22,1426.96 1746.12,1428.36 1745.93,1429.51 1746.66,1430.41 1748.31,1431.08"/>
    </edge>
    <edge id=":2168356862_4" function="internal">
        <lane id=":2168356862_4_0" index="0" disallow="tram rail_urban rail rail_electric ship" speed="13.89" length="6.49" shape="1747.22,1426.96 1743.34,1432.16"/>
    </edge>
    <edge id=":2168356862_5" function="internal">
        <lane id=":2168356862_5_0" index="0" disallow="tram rail_urban rail rail_electric ship" speed="13.89" length="4.82" shape="1747.22,1426.96 1745.76,1427.23 1744.89,1426.93 1744.61,1426.05 1744.92,1424.59"/>
    </edge>
    <edge id=":2168356862_6" function="internal">
        <lane id=":2168356862_6_0" index="0" disallow="tram rail_urban rail rail_electric ship" speed="13.89" length="4.76" shape="1742.87,1428.89 1744.92,1424.59"/>
    </edge>
    <edge id=":2168356862_7" function="internal">
        <lane id=":2168356862_7_0" index="0" disallow="tram rail_urban rail rail_electric ship" speed="13.89" length="5.86" shape="1742.87,1428.89 1748.31,1431.08"/>
    </edge>
    <edge id=":2168356862_8" function="internal">
        <lane id=":2168356862_8_0" index="0" disallow="tram rail_urban rail rail_electric ship" speed="13.89" length="3.12" shape="1742.87,1428.89 1744.21,1429.53 1744.74,1430.29 1744.52,1430.96"/>
    </edge>
    <edge id=":2168356862_10" function="internal">
        <lane id=":2168356862_10_0" index="0" speed="13.89" length="1.70" shape="1744.52,1430.96 1744.45,1431.17 1743.34,1432.16"/>
    </edge>
    <edge id=":2168356864_0" function="internal">
        <lane id=":2168356864_0_0" index="0" disallow="tram rail_urban rail rail_electric ship" speed="13.89" length="15.34" shape="1708.84,1432.80 1705.18,1433.33 1701.66,1434.85 1698.24,1436.82 1694.87,1438.71"/>
    </edge>
    <edge id=":2168356864_1" function="internal">
        <lane id=":2168356864_1_0" index="0" disallow="tram rail_urban rail rail_electric ship" speed="13.89" length="16.24" shape="1708.84,1432.80 1704.90,1432.62 1700.73,1432.41 1696.56,1432.19 1692.62,1431.98"/>
    </edge>
    <edge id=":2168356864_2" function="internal">
        <lane id=":2168356864_2_0" index="0" disallow="tram rail_urban rail rail_electric ship" speed="13.89" length="2.41" shape="1708.84,1432.80 1707.63,1431.93 1707.25,1431.09"/>
    </edge>
    <edge id=":2168356864_9" function="internal">
        <lane id=":2168356864_9_0" index="0" speed="13.89" length="2.41" shape="1707.25,1431.09 1707.70,1430.28 1708.97,1429.50"/>
    </edge>
    <edge id=":2168356864_3" function="internal">
        <lane id=":2168356864_3_0" index="0" disallow="tram rail_urban rail rail_electric ship" speed="13.89" length="16.20" shape="1692.79,1428.68 1696.72,1428.89 1700.88,1429.12 1705.03,1429.33 1708.97,1429.50"/>
    </edge>
    <edge id=":2168356864_4" function="internal">
        <lane id=":2168356864_4_0" index="0" disallow="tram rail_urban rail rail_electric ship" speed="13.89" length="9.82" shape="1692.79,1428.68 1700.48,1429.71 1702.18,1430.88"/>
    </edge>
    <edge id=":2168356864_5" function="internal">
        <lane id=":2168356864_5_0" index="0" disallow="tram rail_urban rail rail_electric ship" speed="13.89" length="2.41" shape="1692.79,1428.68 1693.98,1429.57 1694.35,1430.42"/>
    </edge>
    <edge id=":2168356864_10" function="internal">
        <lane id=":2168356864_10_0" index="0" speed="13.89" length="12.76" shape="1702.18,1430.88 1703.38,1431.72 1701.51,1434.72 1694.87,1438.71"/>
    </edge>
    <edge id=":2168356864_11" function="internal">
        <lane id=":2168356864_11_0" index="0" speed="13.89" length="2.41" shape="1694.35,1430.42 1693.90,1431.22 1692.62,1431.98"/>
    </edge>
    <edge id=":2168356864_6" function="internal">
        <lane id=":2168356864_6_0" index="0" disallow="tram rail_urban rail rail_electric ship" speed="13.89" length="8.50" shape="1693.40,1435.75 1695.90,1434.25 1696.61,1433.12 1695.51,1432.36 1692.62,1431.98"/>
    </edge>
    <edge id=":2168356864_7" function="internal">
        <lane id=":2168356864_7_0" index="0" disallow="tram rail_urban rail rail_electric ship" speed="13.89" length="16.93" shape="1693.40,1435.75 1697.02,1433.81 1700.99,1431.72 1705.06,1430.08 1708.97,1429.50"/>
    </edge>
    <edge id=":2168356864_8" function="internal">
        <lane id=":2168356864_8_0" index="0" disallow="tram rail_urban rail rail_electric ship" speed="13.89" length="4.82" shape="1693.40,1435.75 1694.87,1435.94 1695.61,1436.50 1695.61,1437.42 1694.87,1438.71"/>
    </edge>
    <edge id=":2241058327_0" function="internal">
        <lane id=":2241058327_0_0" index="0" disallow="tram rail_urban rail rail_electric ship" speed="13.89" length="5.05" shape="2064.77,1736.82 2063.40,1736.90 2062.39,1737.41 2061.73,1738.34 2061.42,1739.71"/>
    </edge>
    <edge id=":2241058327_1" function="internal">
        <lane id=":2241058327_1_0" index="0" disallow="tram rail_urban rail rail_electric ship" speed="13.89" length="9.54" shape="2064.77,1736.82 2055.26,1736.12"/>
    </edge>
    <edge id=":2241058327_2" function="internal">
        <lane id=":2241058327_2_0" index="0" disallow="tram rail_urban rail rail_electric ship" speed="13.89" length="2.41" shape="2064.77,1736.82 2063.61,1735.89 2063.27,1735.04"/>
    </edge>
    <edge id=":2241058327_9" function="internal">
        <lane id=":2241058327_9_0" index="0" speed="13.89" length="2.41" shape="2063.27,1735.04 2063.75,1734.25 2065.05,1733.53"/>
    </edge>
    <edge id=":2241058327_3" function="internal">
        <lane id=":2241058327_3_0" index="0" disallow="tram rail_urban rail rail_electric ship" speed="13.89" length="9.61" shape="2055.47,1732.82 2065.05,1733.53"/>
    </edge>
    <edge id=":2241058327_4" function="internal">
        <lane id=":2241058327_4_0" index="0" disallow="tram rail_urban rail rail_electric ship" speed="13.89" length="5.36" shape="2055.47,1732.82 2058.27,1733.41 2060.20,1734.75 2060.27,1734.88"/>
    </edge>
    <edge id=":2241058327_5" function="internal">
        <lane id=":2241058327_5_0" index="0" disallow="tram rail_urban rail rail_electric ship" speed="13.89" length="2.41" shape="2055.47,1732.82 2056.65,1733.72 2057.01,1734.57"/>
    </edge>
    <edge id=":2241058327_10" function="internal">
        <lane id=":2241058327_10_0" index="0" speed="13.89" length="5.06" shape="2060.27,1734.88 2061.25,1736.85 2061.42,1739.71"/>
    </edge>
    <edge id=":2241058327_11" function="internal">
        <lane id=":2241058327_11_0" index="0" speed="13.89" length="2.41" shape="2057.01,1734.57 2056.55,1735.37 2055.26,1736.12"/>
    </edge>
    <edge id=":2241058327_6" function="internal">
        <lane id=":2241058327_6_0" index="0" disallow="tram rail_urban rail rail_electric ship" speed="13.89" length="5.02" shape="2058.13,1739.43 2058.05,1738.06 2057.54,1737.04 2056.61,1736.40 2055.26,1736.12"/>
    </edge>
    <edge id=":2241058327_7" function="internal">
        <lane id=":2241058327_7_0" index="0" disallow="tram rail_urban rail rail_electric ship" speed="13.89" length="10.38" shape="2058.13,1739.43 2058.76,1736.65 2060.13,1734.73 2062.22,1733.70 2065.05,1733.53"/>
    </edge>
    <edge id=":2241058327_8" function="internal">
        <lane id=":2241058327_8_0" index="0" disallow="tram rail_urban rail rail_electric ship" speed="13.89" length="4.82" shape="2058.13,1739.43 2059.06,1738.27 2059.91,1737.93 2060.70,1738.40 2061.42,1739.71"/>
    </edge>
    <edge id=":2241060196_0" function="internal">
        <lane id=":2241060196_0_0" index="0" disallow="tram rail_urban rail rail_electric ship" speed="13.89" length="4.82" shape="2519.87,1793.59 2521.35,1793.46 2522.19,1793.84 2522.38,1794.74 2521.94,1796.16"/>
    </edge>
    <edge id=":2241062381_0" function="internal">
        <lane id=":2241062381_0_0" index="0" disallow="tram rail_urban rail rail_electric ship" speed="13.89" length="5.01" shape="2051.35,1899.60 2049.98,1899.66 2048.96,1900.15 2048.29,1901.06 2047.98,1902.40"/>
    </edge>
    <edge id=":2241062381_1" function="internal">
        <lane id=":2241062381_1_0" index="0" disallow="tram rail_urban rail rail_electric ship" speed="13.89" length="9.56" shape="2051.35,1899.60 2041.84,1898.69"/>
    </edge>
    <edge id=":2241062381_2" function="internal">
        <lane id=":2241062381_2_0" index="0" disallow="tram rail_urban rail rail_electric ship" speed="13.89" length="5.29" shape="2051.35,1899.60 2048.59,1898.93 2046.70,1897.53 2046.66,1897.44"/>
    </edge>
    <edge id=":2241062381_3" function="internal">
        <lane id=":2241062381_3_0" index="0" disallow="tram rail_urban rail rail_electric ship" speed="13.89" length="2.41" shape="2051.35,1899.60 2050.20,1898.66 2049.87,1897.80"/>
    </edge>
    <edge id=":2241062381_16" function="internal">
        <lane id=":2241062381_16_0" index="0" speed="13.89" length="5.09" shape="2046.66,1897.44 2045.67,1895.42 2045.50,1892.59"/>
    </edge>
    <edge id=":2241062381_17" function="internal">
        <lane id=":2241062381_17_0" index="0" speed="13.89" length="2.41" shape="2049.87,1897.80 2050.36,1897.02 2051.67,1896.32"/>
    </edge>
    <edge id=":2241062381_4" function="internal">
        <lane id=":2241062381_4_0" index="0" disallow="tram rail_urban rail rail_electric ship" speed="13.89" length="5.12" shape="2048.79,1892.86 2048.87,1894.25 2049.38,1895.30 2050.32,1895.98 2051.67,1896.32"/>
    </edge>
    <edge id=":2241062381_5" function="internal">
        <lane id=":2241062381_5_0" index="0" disallow="tram rail_urban rail rail_electric ship" speed="13.89" length="9.58" shape="2048.79,1892.86 2047.98,1902.40"/>
    </edge>
    <edge id=":2241062381_6" function="internal">
        <lane id=":2241062381_6_0" index="0" disallow="tram rail_urban rail rail_electric ship" speed="13.89" length="10.37" shape="2048.79,1892.86 2048.16,1895.63 2046.79,1897.53 2044.68,1898.55 2041.84,1898.69"/>
    </edge>
    <edge id=":2241062381_7" function="internal">
        <lane id=":2241062381_7_0" index="0" disallow="tram rail_urban rail rail_electric ship" speed="13.89" length="4.82" shape="2048.79,1892.86 2047.87,1894.02 2047.01,1894.37 2046.22,1893.89 2045.50,1892.59"/>
    </edge>
    <edge id=":2241062381_8" function="internal">
        <lane id=":2241062381_8_0" index="0" disallow="tram rail_urban rail rail_electric ship" speed="13.89" length="5.01" shape="2042.14,1895.40 2043.52,1895.34 2044.53,1894.84 2045.20,1893.93 2045.50,1892.59"/>
    </edge>
    <edge id=":2241062381_9" function="internal">
        <lane id=":2241062381_9_0" index="0" disallow="tram rail_urban rail rail_electric ship" speed="13.89" length="9.57" shape="2042.14,1895.40 2051.67,1896.32"/>
    </edge>
    <edge id=":2241062381_10" function="internal">
        <lane id=":2241062381_10_0" index="0" disallow="tram rail_urban rail rail_electric ship" speed="13.89" length="5.31" shape="2042.14,1895.40 2044.91,1896.06 2046.80,1897.45 2046.85,1897.56"/>
    </edge>
    <edge id=":2241062381_11" function="internal">
        <lane id=":2241062381_11_0" index="0" disallow="tram rail_urban rail rail_electric ship" speed="13.89" length="2.41" shape="2042.14,1895.40 2043.30,1896.34 2043.63,1897.20"/>
    </edge>
    <edge id=":2241062381_18" function="internal">
        <lane id=":2241062381_18_0" index="0" speed="13.89" length="5.06" shape="2046.85,1897.56 2047.82,1899.56 2047.98,1902.40"/>
    </edge>
    <edge id=":2241062381_19" function="internal">
        <lane id=":2241062381_19_0" index="0" speed="13.89" length="2.41" shape="2043.63,1897.20 2043.15,1897.98 2041.84,1898.69"/>
    </edge>
    <edge id=":2241062381_12" function="internal">
        <lane id=":2241062381_12_0" index="0" disallow="tram rail_urban rail rail_electric ship" speed="13.89" length="5.07" shape="2044.69,1902.11 2044.61,1900.72 2044.11,1899.69 2043.19,1899.01 2041.84,1898.69"/>
    </edge>
    <edge id=":2241062381_13" function="internal">
        <lane id=":2241062381_13_0" index="0" disallow="tram rail_urban rail rail_electric ship" speed="13.89" length="9.56" shape="2044.69,1902.11 2045.50,1892.59"/>
    </edge>
    <edge id=":2241062381_14" function="internal">
        <lane id=":2241062381_14_0" index="0" disallow="tram rail_urban rail rail_electric ship" speed="13.89" length="10.37" shape="2044.69,1902.11 2045.34,1899.34 2046.72,1897.45 2048.83,1896.44 2051.67,1896.32"/>
    </edge>
    <edge id=":2241062381_15" function="internal">
        <lane id=":2241062381_15_0" index="0" disallow="tram rail_urban rail rail_electric ship" speed="13.89" length="4.82" shape="2044.69,1902.11 2045.62,1900.95 2046.48,1900.61 2047.26,1901.09 2047.98,1902.40"/>
    </edge>
    <edge id=":247714164_0" function="internal">
        <lane id=":247714164_0_0" index="0" allow="delivery bicycle pedestrian" speed="5.56" length="4.82" shape="1865.33,2080.40 1864.81,2081.79 1864.10,2082.38 1863.21,2082.17 1862.12,2081.16"/>
    </edge>
    <edge id=":256029411_0" function="internal">
        <lane id=":256029411_0_0" index="0" disallow="tram rail_urban rail rail_electric ship" speed="13.89" length="4.82" shape="2313.94,1750.47 2315.11,1751.39 2315.46,1752.24 2314.99,1753.03 2313.70,1753.77"/>
    </edge>
    <edge id=":256029528_0" function="internal">